06_Joshua_Smith/gisPython/warePlace.dss
New Line.263361335 Bus1=263361332.2     Bus2=260651139.2     LineCode=1/0-AL-HMWPECN-15KV Phases= 1 Length=83.97  units=m enable=yes
New Line.258282251 Phases= 3 Bus1=258282246.1.2.3 Bus2=258282253.1.2.3 Length=40.25  units=m  Spacing=8'-ARM-NON-CENTER-POST-3PH wires=['336-AAC-B-19' '336-AAC-B-19' '336-AAC-B-19' '1/0-ACSR-B-6X1']
New Line.260650887 Bus1=260650888.2     Bus2=260650889.2     LineCode=1/0-AL-HMWPECN-15KV Phases= 1 Length=412.50 units=m enable=yes
New Line.288589186 Phases= 3 Bus1=258281769.1.2.3 Bus2=258281784.1.2.3 Length=18.35  units=m  Spacing=8'-ARM-NON-CENTER-POST-3PH wires=['336-AAC-B-19' '336-AAC-B-19' '336-AAC-B-19' '1/0-ACSR-B-6X1']
New Line.258281187 Phases= 1 Bus1=258281184.2     Bus2=258281189.2     Length=17.16  units=m  Spacing=VERTICAL-1-PH-60-1PH wires=['2-ACSR-B-6X1' '2-ACSR-B-6X1']
New Line.258281311 Phases= 1 Bus1=258281298.1     Bus2=258281313.1     Length=55.74  units=m  Spacing=VERTICAL-1-PH-60-1PH wires=['2-ACSR-B-6X1' '2-ACSR-B-6X1']
New Line.258278297 Phases= 3 Bus1=258278294.1.2.3 Bus2=258278299.1.2.3 Length=48.39  units=m  Spacing=8'-ARM-NON-CENTER-POST-3PH wires=['336-ACSR-WP-18X1' '336-ACSR-WP-18X1' '336-ACSR-WP-18X1' '1/0-ACSR-B-6X1']
New Line.471061834 Phases= 3 Bus1=471061832.1.2.3 Bus2=385900614.1.2.3 Length=43.98  units=m  Spacing=8'-ARM-STANDARD-3PH wires=['556-AAC-B-19' '556-AAC-B-19' '556-AAC-B-19' '336-AAC-B-19']
New Line.699789961 Phases= 1 Bus1=258287842.3     Bus2=258287847.3     Length=62.96  units=m  Spacing=VERTICAL-1-PH-60-1PH wires=['1/0-ACSR-B-6X1' '2-ACSR-B-6X1']
New Line.263363012 Bus1=263363009.2     Bus2=260652081.2     LineCode=1/0-AL-HMWPECN-15KV Phases= 1 Length=65.36  units=m enable=yes
New Line.260651097 Bus1=260651098.2     Bus2=260651099.2     LineCode=1/0-AL-HMWPECN-15KV Phases= 1 Length=76.53  units=m enable=yes
New Line.258281488 Phases= 1 Bus1=258281485.2     Bus2=258281490.2     Length=21.52  units=m  Spacing=VERTICAL-1-PH-60-1PH wires=['2-ACSR-B-6X1' '2-ACSR-B-6X1']
New Line.263846125 Bus1=263846122.2     Bus2=261119899.2     LineCode=1/0-AL-TRXLPELCJ-15KV Phases= 1 Length=180.90 units=m enable=yes
New Line.385900781 Bus1=385900552.1.2.3 Bus2=385900538.1.2.3 LineCode=1/0-AL-TRXLPELCJ-25KV Phases= 3 Length=44.39  units=m enable=yes
New Line.258287493 Phases= 1 Bus1=258287490.2     Bus2=258287495.2     Length=17.99  units=m  Spacing=VERTICAL-1-PH-60-1PH wires=['4-ACSR-B-6X1' '4-ACSR-B-6X1']
New Line.261315934 Bus1=261315935.1     Bus2=261315930.1     LineCode=1/0-AL-TRXLPELCJ-15KV Phases= 1 Length=140.70 units=m enable=yes
New Line.699048792 Bus1=699048794.1.2.3 Bus2=261459148.1.2.3 LineCode=1/0-AL-TRXLPELCJ-15KV Phases= 3 Length=1.52   units=m enable=yes
New Line.258287830 Phases= 1 Bus1=258287827.3     Bus2=258287832.3     Length=41.22  units=m  Spacing=VERTICAL-1-PH-60-1PH wires=['1/0-ACSR-B-6X1' '2-ACSR-B-6X1']
New Line.260651122 Bus1=260651119.2     Bus2=260651124.2     LineCode=1/0-AL-HMWPECN-15KV Phases= 1 Length=120.10 units=m enable=yes
New Line.258281777 Phases= 1 Bus1=258281774.1     Bus2=258281779.1     Length=274.60 units=m  Spacing=VERTICAL-1-PH-60-1PH wires=['2-ACSR-B-6X1' '2-ACSR-B-6X1']
New Line.258287448 Phases= 3 Bus1=258287443.1.2.3 Bus2=258287450.1.2.3 Length=97.05  units=m  Spacing=8'-ARM-NON-CENTER-POST-3PH wires=['2-ACSR-B-6X1' '2-ACSR-B-6X1' '2-ACSR-B-6X1' '2-ACSR-B-6X1']
New Line.258281259 Phases= 3 Bus1=258281256.1.2.3 Bus2=258281261.1.2.3 Length=40.59  units=m  Spacing=8'-ARM-NON-CENTER-POST-3PH wires=['336-AAC-B-19' '336-AAC-B-19' '336-AAC-B-19' '1/0-ACSR-B-6X1']
New Line.260859587 Bus1=258281618.1     Bus2=260859589.1     LineCode=1/0-AL-TRXLPELCJ-15KV Phases= 1 Length=1.00   units=m enable=yes
New Line.258287498 Phases= 1 Bus1=258287495.2     Bus2=258287500.2     Length=26.39  units=m  Spacing=VERTICAL-1-PH-60-1PH wires=['4-ACSR-B-6X1' '4-ACSR-B-6X1']
New Line.259117404 Phases= 3 Bus1=258281157.1.2.3 Bus2=258281161.1.2.3 Length=67.88  units=m  Spacing=8'-ARM-NON-CENTER-POST-3PH wires=['2-ACSR-B-6X1' '2-ACSR-B-6X1' '2-ACSR-B-6X1' '2-ACSR-B-6X1']
New Line.258281838 Phases= 1 Bus1=258281835.3     Bus2=258281840.3     Length=51.29  units=m  Spacing=VERTICAL-1-PH-60-1PH wires=['2-ACSR-B-6X1' '2-ACSR-B-6X1']
New Line.258281993 Phases= 1 Bus1=258281965.3     Bus2=258281995.3     Length=39.28  units=m  Spacing=VERTICAL-1-PH-60-1PH wires=['1/0-ACSR-B-6X1' '1/0-ACSR-B-6X1']
New Line.865972477 Bus1=261264279.2     Bus2=865972479.2     LineCode=1/0-AL-TRXLPELCJ-25KV Phases= 1 Length=58.31  units=m enable=yes
New Line.428164408 Phases= 1 Bus1=428164405.2     Bus2=428164376.2     Length=36.00  units=m  Spacing=VERTICAL-1-PH-104-1PH wires=['2-ACSR-B-6X1' '2-ACSR-B-6X1']
New Line.258281249 Phases= 3 Bus1=258281241.1.2.3 Bus2=258281251.1.2.3 Length=47.22  units=m  Spacing=8'-ARM-NON-CENTER-POST-3PH wires=['336-AAC-B-19' '336-AAC-B-19' '336-AAC-B-19' '1/0-ACSR-B-6X1']
New Line.258287473 Phases= 3 Bus1=258287470.1.2.3 Bus2=258287475.1.2.3 Length=46.84  units=m  Spacing=8'-ARM-NON-CENTER-POST-3PH wires=['2-ACSR-B-6X1' '2-ACSR-B-6X1' '2-ACSR-B-6X1' '2-ACSR-B-6X1']
New Line.455203840 Phases= 1 Bus1=455203810.1     Bus2=455203842.1     Length=73.36  units=m  Spacing=VERTICAL-1-PH-60-1PH wires=['2-ACSR-B-6X1' '2-ACSR-B-6X1']
New Line.258281291 Phases= 1 Bus1=258281288.1     Bus2=258281293.1     Length=52.28  units=m  Spacing=VERTICAL-1-PH-60-1PH wires=['2-ACSR-B-6X1' '2-ACSR-B-6X1']
New Line.258287860 Phases= 1 Bus1=258287725.1     Bus2=258287862.1     Length=37.43  units=m  Spacing=VERTICAL-1-PH-60-1PH wires=['2-ACSR-B-6X1' '2-ACSR-B-6X1']
New Line.259452998 Phases= 3 Bus1=259452999.1.2.3 Bus2=258282166.1.2.3 Length=30.61  units=m  Spacing=8'-ARM-STANDARD-3PH wires=['1/0-ACSR-B-6X1' '1/0-ACSR-B-6X1' '1/0-ACSR-B-6X1' '1/0-ACSR-B-6X1']
New Line.260019933 Phases= 3 Bus1=258281720.1.2.3 Bus2=258281729.1.2.3 Length=32.77  units=m  Spacing=8'-ARM-NON-CENTER-POST-3PH wires=['1/0-ACSR-B-6X1' '1/0-ACSR-B-6X1' '1/0-ACSR-B-6X1' '1/0-ACSR-B-6X1']
New Line.261264087 Bus1=261013274.2     Bus2=261187908.2     LineCode=1/0-AL-TRXLPELCJ-15KV Phases= 1 Length=66.40  units=m enable=yes
New Line.258281366 Phases= 3 Bus1=258281363.1.2.3 Bus2=258281368.1.2.3 Length=24.90  units=m  Spacing=8'-ARM-NON-CENTER-POST-3PH wires=['336-AAC-B-19' '336-AAC-B-19' '336-AAC-B-19' '1/0-ACSR-B-6X1']
New Line.258282214 Phases= 3 Bus1=258282206.1.2.3 Bus2=258282216.1.2.3 Length=25.41  units=m  Spacing=8'-ARM-NON-CENTER-POST-3PH wires=['1/0-ACSR-B-6X1' '1/0-ACSR-B-6X1' '1/0-ACSR-B-6X1' '1/0-ACSR-B-6X1']
New Line.258287523 Phases= 1 Bus1=258287520.2     Bus2=258287525.2     Length=65.37  units=m  Spacing=VERTICAL-1-PH-60-1PH wires=['4-ACSR-B-6X1' '4-ACSR-B-6X1']
New Line.258287790 Phases= 1 Bus1=258287787.1     Bus2=258287792.1     Length=30.98  units=m  Spacing=VERTICAL-1-PH-60-1PH wires=['2-ACSR-B-6X1' '2-ACSR-B-6X1']
New Line.258278357 Phases= 3 Bus1=258278349.1.2.3 Bus2=258278359.1.2.3 Length=41.50  units=m  Spacing=8'-ARM-NON-CENTER-POST-3PH wires=['336-ACSR-WP-18X1' '336-ACSR-WP-18X1' '336-ACSR-WP-18X1' '1/0-ACSR-WP-6X1']
New Line.261315964 Bus1=261315961.3     Bus2=261315840.3     LineCode=1/0-AL-TRXLPELCJ-15KV Phases= 1 Length=91.05  units=m enable=yes
New Line.621098717 Phases= 3 Bus1=699730259.1.2.3 Bus2=699730216.1.2.3 Length=30.74  units=m  Spacing=8'-ARM-STANDARD-3PH wires=['1/0-ACSR-B-6X1' '1/0-ACSR-B-6X1' '1/0-ACSR-B-6X1' '1/0-ACSR-B-6X1']
New Line.261264052 Bus1=261072647.2     Bus2=261013283.2     LineCode=1/0-AL-TRXLPELCJ-15KV Phases= 1 Length=91.06  units=m enable=yes
New Line.455203697 Phases= 3 Bus1=455203679.1.2.3 Bus2=455203694.1.2.3 Length=34.64  units=m  Spacing=8'-ARM-STANDARD-3PH wires=['1/0-ACSR-B-6X1' '1/0-ACSR-B-6X1' '1/0-ACSR-B-6X1' '1/0-ACSR-B-6X1']
New Line.258282204 Phases= 3 Bus1=258282201.1.2.3 Bus2=258282206.1.2.3 Length=85.08  units=m  Spacing=8'-ARM-NON-CENTER-POST-3PH wires=['1/0-ACSR-B-6X1' '1/0-ACSR-B-6X1' '1/0-ACSR-B-6X1' '1/0-ACSR-B-6X1']
New Line.258281699 Phases= 1 Bus1=258281696.2     Bus2=258281701.2     Length=132.90 units=m  Spacing=VERTICAL-1-PH-60-1PH wires=['4-CU-TBWP-7' '4-CU-TBWP-7']
New Line.258281286 Phases= 1 Bus1=258281283.1     Bus2=258281288.1     Length=41.08  units=m  Spacing=VERTICAL-1-PH-60-1PH wires=['2-ACSR-B-6X1' '2-ACSR-B-6X1']
New Line.260650897 Bus1=260650894.2     Bus2=260650899.2     LineCode=1/0-AL-HMWPECN-15KV Phases= 1 Length=200.50 units=m enable=yes
New Line.258278536 Phases= 3 Bus1=258278528.1.2.3 Bus2=258278538.1.2.3 Length=53.19  units=m  Spacing=8'-ARM-NON-CENTER-POST-3PH wires=['336-ACSR-WP-18X1' '336-ACSR-WP-18X1' '336-ACSR-WP-18X1' '1/0-ACSR-WP-6X1']
New Line.261315864 Bus1=261315865.1     Bus2=261315860.1     LineCode=1/0-AL-TRXLPELCJ-15KV Phases= 1 Length=185.70 units=m enable=yes
New Line.263361465 Bus1=258282226.1.2.3 Bus2=263361467.1.2.3 LineCode=1/0-AL-HMWPECN-15KV Phases= 3 Length=1.53   units=m enable=yes
New Line.260896130 Bus1=260896131.2     Bus2=260896132.2     LineCode=1/0-AL-TRXLPELCJ-15KV Phases= 1 Length=97.61  units=m enable=yes
New Line.263363029 Phases= 3 Bus1=258278354.1.2.3 Bus2=263363027.1.2.3 Length=1.52   units=m  Spacing=8'-ARM-NON-CENTER-POST-3PH wires=['336-ACSR-WP-18X1' '336-ACSR-WP-18X1' '336-ACSR-WP-18X1' '1/0-ACSR-WP-6X1']
New Line.258281689 Phases= 3 Bus1=258281686.1.2.3 Bus2=258281691.1.2.3 Length=101.00 units=m  Spacing=8'-ARM-NON-CENTER-POST-3PH wires=['336-AAC-B-19' '336-AAC-B-19' '336-AAC-B-19' '1/0-ACSR-B-6X1']
New Line.260650872 Bus1=260650873.2     Bus2=260650874.2     LineCode=1/0-AL-HMWPECN-15KV Phases= 1 Length=75.00  units=m enable=yes
New Line.263362998 Phases= 1 Bus1=258281189.2     Bus2=263363000.2     Length=1.52   units=m  Spacing=VERTICAL-1-PH-60-1PH wires=['2-ACSR-B-6X1' '2-ACSR-B-6X1']
New Line.258281513 Phases= 1 Bus1=258281505.2     Bus2=258281515.2     Length=21.15  units=m  Spacing=VERTICAL-1-PH-60-1PH wires=['2-ACSR-B-6X1' '2-ACSR-B-6X1']
New Line.258278377 Phases= 1 Bus1=258278369.2     Bus2=258278379.2     Length=67.02  units=m  Spacing=VERTICAL-1-PH-60-1PH wires=['2-ACSR-B-6X1' '2-ACSR-B-6X1']
New Line.258284397 Phases= 3 Bus1=258284394.1.2.3 Bus2=258284399.1.2.3 Length=38.09  units=m  Spacing=8'-ARM-NON-CENTER-POST-3PH wires=['336-AAC-B-19' '336-AAC-B-19' '336-AAC-B-19' '1/0-ACSR-B-6X1']
New Line.258287800 Phases= 1 Bus1=258287762.3     Bus2=258287802.3     Length=57.29  units=m  Spacing=VERTICAL-1-PH-60-1PH wires=['1/0-ACSR-B-6X1' '2-ACSR-B-6X1']
New Line.261264072 Bus1=261060942.1     Bus2=261014260.1     LineCode=1/0-AL-TRXLPELCJ-15KV Phases= 1 Length=43.15  units=m enable=yes
New Line.263363047 Phases= 3 Bus1=258287757.1.2.3 Bus2=263363045.1.2.3 Length=1.53   units=m  Spacing=8'-ARM-NON-CENTER-POST-3PH wires=['1/0-ACSR-B-6X1' '1/0-ACSR-B-6X1' '1/0-ACSR-B-6X1' '2-ACSR-B-6X1']
New Line.261014254 Bus1=261014255.1     Bus2=261014256.1     LineCode=1/0-AL-TRXLPELCJ-15KV Phases= 1 Length=589.80 units=m enable=yes
New Line.261187932 Bus1=261187929.2     Bus2=261107370.2     LineCode=1/0-AL-TRXLPELCJ-15KV Phases= 1 Length=85.05  units=m enable=yes
New Line.260650902 Bus1=260650899.2     Bus2=260650904.2     LineCode=1/0-AL-HMWPECN-15KV Phases= 1 Length=138.50 units=m enable=yes
New Line.258287553 Phases= 1 Bus1=258287550.2     Bus2=258287555.2     Length=61.25  units=m  Spacing=VERTICAL-1-PH-60-1PH wires=['2-ACSR-B-6X1' '2-ACSR-B-6X1']
New Line.258281863 Phases= 1 Bus1=258281855.3     Bus2=258281865.3     Length=55.19  units=m  Spacing=VERTICAL-1-PH-60-1PH wires=['2-ACSR-B-6X1' '2-ACSR-B-6X1']
New Line.263828707 Phases= 1 Bus1=263828704.1     Bus2=258281624.1     Length=104.10 units=m  Spacing=VERTICAL-1-PH-60-1PH wires=['2-ACSR-B-6X1' '2-ACSR-B-6X1']
New Line.261266520 Bus1=260651104.2     Bus2=260651108.2     LineCode=1/0-AL-HMWPECN-15KV Phases= 1 Length=60.87  units=m enable=yes
New Line.621098763 Bus1=699730216.1.2.3 Bus2=699048688.1.2.3 LineCode=1/0-AL-TRXLPELCJ-25KV Phases= 3 Length=1.51   units=m enable=yes
New Line.263361474 Phases= 1 Bus1=258282260.3     Bus2=263361476.3     Length=1.52   units=m  Spacing=VERTICAL-1-PH-60-1PH wires=['1/0-ACSR-B-6X1' '1/0-ACSR-B-6X1']
New Line.469609805 Phases= 3 Bus1=385900425.1.2.3 Bus2=469609804.1.2.3 Length=149.70 units=m  Spacing=8'-ARM-STANDARD-3PH wires=['556-AAC-B-19' '556-AAC-B-19' '556-AAC-B-19' '336-AAC-B-19']
New Line.258281563 Phases= 3 Bus1=258281428.1.2.3 Bus2=258281565.1.2.3 Length=98.73  units=m  Spacing=8'-ARM-NON-CENTER-POST-3PH wires=['2-ACSR-B-6X1' '2-ACSR-B-6X1' '2-ACSR-B-6X1' '2-ACSR-B-6X1']
New Line.258282174 Phases= 3 Bus1=258282170.1.2.3 Bus2=258282176.1.2.3 Length=73.57  units=m  Spacing=8'-ARM-NON-CENTER-POST-3PH wires=['1/0-ACSR-B-6X1' '1/0-ACSR-B-6X1' '1/0-ACSR-B-6X1' '2-ACSR-B-6X1']
New Line.263846111 Bus1=259350253.3     Bus2=263846113.3     LineCode=1/0-AL-TRXLPELCJ-15KV Phases= 1 Length=1.53   units=m enable=yes
New Line.258287698 Phases= 1 Bus1=258287695.1     Bus2=258287700.1     Length=54.21  units=m  Spacing=VERTICAL-1-PH-60-1PH wires=['6-CU-B-S' '6-CU-B-S']
New Line.263828711 Phases= 1 Bus1=258281644.2     Bus2=263828713.2     Length=1.53   units=m  Spacing=VERTICAL-1-PH-60-1PH wires=['2-ACSR-B-6X1' '2-ACSR-B-6X1']
New Line.263628562 Bus1=258281614.1     Bus2=263628564.1     LineCode=1/0-AL-TRXLPELCJ-15KV Phases= 1 Length=1.53   units=m enable=yes
New Line.627216472 Phases= 3 Bus1=627216469.1.2.3 Bus2=469609639.1.2.3 Length=357.40 units=m  Spacing=8'-ARM-STANDARD-3PH wires=['556-AAC-B-19' '556-AAC-B-19' '556-AAC-B-19' '336-AAC-B-19']
New Line.264244419 Bus1=260651133.2     Bus2=264244417.2     LineCode=1/0-AL-TRXLPELCJ-15KV Phases= 1 Length=66.78  units=m enable=yes
New Line.263362436 Bus1=263362433.1.2.3 Bus2=260651691.1.2.3 LineCode=1/0-AL-HMWPECN-15KV Phases= 3 Length=53.45  units=m enable=yes
New Line.263361263 Phases= 1 Bus1=263361260.2     Bus2=258281125.2     Length=65.46  units=m  Spacing=VERTICAL-1-PH-60-1PH wires=['2-ACSR-B-6X1' '2-ACSR-B-6X1']
New Line.263361312 Phases= 1 Bus1=258281435.2     Bus2=263361314.2     Length=1.52   units=m  Spacing=VERTICAL-1-PH-60-1PH wires=['2-ACSR-B-6X1' '2-ACSR-B-6X1']
New Line.258281578 Phases= 3 Bus1=258281373.1.2.3 Bus2=258281580.1.2.3 Length=24.74  units=m  Spacing=8'-ARM-NON-CENTER-POST-3PH wires=['336-AAC-B-19' '336-AAC-B-19' '336-AAC-B-19' '1/0-ACSR-B-6X1']
New Line.258281160 Phases= 3 Bus1=258281161.1.2.3 Bus2=258281162.1.2.3 Length=22.53  units=m  Spacing=8'-ARM-NON-CENTER-POST-3PH wires=['2-ACSR-B-6X1' '2-ACSR-B-6X1' '2-ACSR-B-6X1' '2-ACSR-B-6X1']
New Line.258281351 Phases= 1 Bus1=258281348.2     Bus2=258281353.2     Length=62.81  units=m  Spacing=VERTICAL-1-PH-60-1PH wires=['4-ACSR-B-6X1' '4-ACSR-B-6X1']
New Line.258278474 Phases= 2 Bus1=258278461.1.2   Bus2=258278476.1.2   Length=125.70 units=m  Spacing=8'-ARM-STANDARD-2PH wires=['2-ACSR-B-6X1' '2-ACSR-B-6X1' '2-ACSR-B-6X1']
New Line.259572816 Phases= 3 Bus1=259572813.1.2.3 Bus2=258275661.1.2.3 Length=138.00 units=m  Spacing=8'-ARM-STANDARD-3PH wires=['556-AAC-B-19' '556-AAC-B-19' '556-AAC-B-19' '336-AAC-B-19']
New Line.700038859 Phases= 3 Bus1=258287730.1.2.3 Bus2=258287757.1.2.3 Length=96.03  units=m  Spacing=8'-ARM-NON-CENTER-POST-3PH wires=['1/0-ACSR-B-6X1' '1/0-ACSR-B-6X1' '1/0-ACSR-B-6X1' '2-ACSR-B-6X1']
New Line.704826206 Phases= 3 Bus1=RANKIN_AVE_RET_79291208.1.2.3 Bus2=704826203.1.2.3 Length=30.88  units=m  Spacing=8'-ARM-STANDARD-3PH wires=['556-AAC-B-19' '556-AAC-B-19' '556-AAC-B-19' '336-AAC-B-19']
New Line.620481153 Phases= 3 Bus1=258287720.1.2.3 Bus2=620481152.1.2.3 Length=54.10  units=m  Spacing=8'-ARM-NON-CENTER-POST-3PH wires=['1/0-ACSR-B-6X1' '1/0-ACSR-B-6X1' '1/0-ACSR-B-6X1' '2-ACSR-B-6X1']
New Line.261187927 Bus1=261187909.2     Bus2=261187929.2     LineCode=1/0-AL-TRXLPELCJ-15KV Phases= 1 Length=275.50 units=m enable=yes
New Line.264026883 Bus1=258281204.1     Bus2=264026885.1     LineCode=1/0-AL-TRXLPELCJ-15KV Phases= 1 Length=1.52   units=m enable=yes
New Line.258287548 Phases= 1 Bus1=258287545.2     Bus2=258287550.2     Length=63.38  units=m  Spacing=VERTICAL-1-PH-60-1PH wires=['2-ACSR-B-6X1' '2-ACSR-B-6X1']
New Line.258281356 Phases= 1 Bus1=258281353.2     Bus2=258281358.2     Length=42.62  units=m  Spacing=VERTICAL-1-PH-60-1PH wires=['4-ACSR-B-6X1' '4-ACSR-B-6X1']
New Line.263828738 Phases= 3 Bus1=258282265.1.2.3 Bus2=263828740.1.2.3 Length=1.52   units=m  Spacing=HORIZ-LINE-POST-3PH wires=['2-ACSR-B-6X1' '2-ACSR-B-6X1' '2-ACSR-B-6X1' '2-ACSR-B-6X1']
New Line.258287513 Phases= 1 Bus1=258287510.2     Bus2=258287515.2     Length=4.31   units=m  Spacing=VERTICAL-1-PH-60-1PH wires=['4-ACSR-B-6X1' '4-ACSR-B-6X1']
New Line.261266545 Bus1=260935769.2     Bus2=260896131.2     LineCode=1/0-AL-TRXLPELCJ-15KV Phases= 1 Length=130.20 units=m enable=yes
New Line.258278347 Phases= 3 Bus1=258278344.1.2.3 Bus2=258278349.1.2.3 Length=103.00 units=m  Spacing=8'-ARM-NON-CENTER-POST-3PH wires=['336-AAC-B-19' '336-AAC-B-19' '336-AAC-B-19' '1/0-ACSR-WP-6X1']
New Line.700038887 Phases= 1 Bus1=700038884.3     Bus2=258287762.3     Length=36.15  units=m  Spacing=VERTICAL-1-PH-60-1PH wires=['1/0-ACSR-B-6X1' '2-ACSR-B-6X1']
New Line.258282244 Phases= 3 Bus1=258282241.1.2.3 Bus2=258282246.1.2.3 Length=38.64  units=m  Spacing=8'-ARM-NON-CENTER-POST-3PH wires=['1/0-ACSR-B-6X1' '1/0-ACSR-B-6X1' '1/0-ACSR-B-6X1' '1/0-ACSR-B-6X1']
New Line.263361285 Phases= 1 Bus1=258281273.1     Bus2=263361287.1     Length=1.52   units=m  Spacing=VERTICAL-1-PH-60-1PH wires=['2-ACSR-B-6X1' '2-ACSR-B-6X1']
New Line.258281341 Phases= 1 Bus1=258281338.2     Bus2=258281343.2     Length=30.67  units=m  Spacing=VERTICAL-1-PH-60-1PH wires=['4-ACSR-B-6X1' '4-ACSR-B-6X1']
New Line.258281533 Phases= 1 Bus1=258281530.2     Bus2=258281535.2     Length=34.42  units=m  Spacing=VERTICAL-1-PH-60-1PH wires=['2-ACSR-B-6X1' '2-ACSR-B-6X1']
New Line.263628576 Bus1=263628573.1     Bus2=260935299.1     LineCode=1/0-AL-TRXLPELCJ-15KV Phases= 1 Length=317.30 units=m enable=yes
New Line.259395309 Phases= 3 Bus1=258282149.1.2.3 Bus2=258282153.1.2.3 Length=85.23  units=m  Spacing=8'-ARM-NON-CENTER-POST-3PH wires=['1/0-ACSR-B-6X1' '1/0-ACSR-B-6X1' '1/0-ACSR-B-6X1' '1/0-ACSR-B-6X1']
New Line.297114967 Phases= 3 Bus1=258281368.1.2.3 Bus2=297114969.1.2.3 Length=1.51   units=m  Spacing=8'-ARM-NON-CENTER-POST-3PH wires=['2-ACSR-B-6X1' '4-ACSR-B-6X1' '2-ACSR-B-6X1' '4-ACSR-B-6X1']
New Line.258281938 Phases= 1 Bus1=258281930.3     Bus2=258281940.3     Length=39.98  units=m  Spacing=VERTICAL-1-PH-60-1PH wires=['1/0-ACSR-B-6X1' '1/0-ACSR-B-6X1']
New Line.258278387 Phases= 1 Bus1=258278384.2     Bus2=258278389.2     Length=40.90  units=m  Spacing=VERTICAL-1-PH-60-1PH wires=['2-ACSR-B-6X1' '2-ACSR-B-6X1']
New Line.258281767 Phases= 3 Bus1=258281762.1.2.3 Bus2=258281769.1.2.3 Length=31.71  units=m  Spacing=8'-ARM-NON-CENTER-POST-3PH wires=['336-AAC-B-19' '336-AAC-B-19' '336-AAC-B-19' '1/0-ACSR-B-6X1']
New Line.264417968 Phases= 3 Bus1=258282153.1.2.3 Bus2=264417966.1.2.3 Length=1.52   units=m  Spacing=8'-ARM-NON-CENTER-POST-3PH wires=['1/0-ACSR-B-6X1' '1/0-ACSR-B-6X1' '1/0-ACSR-B-6X1' '1/0-ACSR-B-6X1']
New Line.258282088 Phases= 1 Bus1=258282085.3     Bus2=258282090.3     Length=60.29  units=m  Spacing=VERTICAL-1-PH-60-1PH wires=['2-ACSR-B-6X1' '2-ACSR-B-6X1']
New Line.258287573 Phases= 1 Bus1=258287570.2     Bus2=258287575.2     Length=42.36  units=m  Spacing=VERTICAL-1-PH-60-1PH wires=['2-ACSR-B-6X1' '2-ACSR-B-6X1']
New Line.258287503 Phases= 1 Bus1=258287500.2     Bus2=258287505.2     Length=57.71  units=m  Spacing=VERTICAL-1-PH-60-1PH wires=['4-ACSR-B-6X1' '4-ACSR-B-6X1']
New Line.260650912 Bus1=260650909.2     Bus2=260650914.2     LineCode=1/0-AL-TRXLPELCJ-15KV Phases= 1 Length=199.40 units=m enable=yes
New Line.261297350 Bus1=261297347.2     Bus2=261297352.2     LineCode=1/0-AL-TRXLPELCJ-15KV Phases= 1 Length=98.08  units=m enable=yes
New Line.258281833 Phases= 1 Bus1=258281830.3     Bus2=258281835.3     Length=47.92  units=m  Spacing=VERTICAL-1-PH-60-1PH wires=['2-ACSR-B-6X1' '2-ACSR-B-6X1']
New Line.297114972 Phases= 3 Bus1=297114969.1.2.3 Bus2=258281378.1.2.3 Length=97.56  units=m  Spacing=8'-ARM-NON-CENTER-POST-3PH wires=['2-ACSR-B-6X1' '4-ACSR-B-6X1' '2-ACSR-B-6X1' '4-ACSR-B-6X1']
New Line.263361357 Phases= 3 Bus1=258281691.1.2.3 Bus2=263361359.1.2.3 Length=1.53   units=m  Spacing=8'-ARM-NON-CENTER-POST-3PH wires=['1/0-ACSR-B-6X1' '1/0-ACSR-B-6X1' '1/0-ACSR-B-6X1' '1/0-ACSR-B-6X1']
New Line.263363007 Bus1=258287685.2     Bus2=263363009.2     LineCode=1/0-AL-HMWPECN-15KV Phases= 1 Length=1.53   units=m enable=yes
New Line.258281523 Phases= 1 Bus1=258281520.2     Bus2=258281525.2     Length=99.60  units=m  Spacing=VERTICAL-1-PH-60-1PH wires=['2-ACSR-B-6X1' '2-ACSR-B-6X1']
New Line.261107344 Bus1=261107345.1     Bus2=261107340.1     LineCode=1/0-AL-TRXLPELCJ-15KV Phases= 1 Length=292.20 units=m enable=yes
New Line.258287508 Phases= 1 Bus1=258287505.2     Bus2=258287510.2     Length=83.18  units=m  Spacing=VERTICAL-1-PH-60-1PH wires=['4-ACSR-B-6X1' '4-ACSR-B-6X1']
New Line.455203876 Phases= 1 Bus1=455203874.1     Bus2=455203873.1     Length=83.21  units=m  Spacing=VERTICAL-1-PH-104-1PH wires=['1/0-ACSR-B-6X1' '1/0-ACSR-B-6X1']
New Line.868883010 Bus1=261264284.2     Bus2=868883008.2     LineCode=1/0-AL-TRXLPELCJ-25KV Phases= 1 Length=284.30 units=m enable=yes
New Line.261297360 Bus1=261297357.2     Bus2=261264278.2     LineCode=1/0-AL-TRXLPELCJ-15KV Phases= 1 Length=109.90 units=m enable=yes
New Line.261297325 Bus1=261297326.3     Bus2=261297327.3     LineCode=1/0-AL-TRXLPELCJ-15KV Phases= 1 Length=118.60 units=m enable=yes
New Line.469779420 Phases= 3 Bus1=258282142.1.2.3 Bus2=469779417.1.2.3 Length=75.24  units=m  Spacing=8'-ARM-NON-CENTER-POST-3PH wires=['1/0-ACSR-B-6X1' '1/0-ACSR-B-6X1' '1/0-ACSR-B-6X1' '1/0-ACSR-B-6X1']
New Line.263628994 Bus1=258281445.2     Bus2=263628996.2     LineCode=1/0-AL-TRXLPELCJ-15KV Phases= 1 Length=1.53   units=m enable=yes
New Line.258287568 Phases= 1 Bus1=258287560.2     Bus2=258287570.2     Length=56.75  units=m  Spacing=VERTICAL-1-PH-60-1PH wires=['2-ACSR-B-6X1' '2-ACSR-B-6X1']
New Line.261187917 Bus1=261187914.2     Bus2=261187919.2     LineCode=1/0-AL-TRXLPELCJ-15KV Phases= 1 Length=192.00 units=m enable=yes
New Line.258281306 Phases= 1 Bus1=258281303.1     Bus2=258281308.1     Length=62.68  units=m  Spacing=VERTICAL-1-PH-60-1PH wires=['2-ACSR-B-6X1' '2-ACSR-B-6X1']
New Line.792329041 Phases= 3 Bus1=792329039.1.2.3 Bus2=627216469.1.2.3 Length=73.31  units=m  Spacing=8'-ARM-STANDARD-3PH wires=['556-AAC-B-19' '556-AAC-B-19' '556-AAC-B-19' '336-AAC-B-19']
New Line.264010481 Bus1=259571237.1.2.3 Bus2=264010483.1.2.3 LineCode=1/0-AL-TRXLPELCJ-15KV Phases= 3 Length=1.53   units=m enable=yes
New Line.264010553 Bus1=259571237.3     Bus2=264010555.3     LineCode=1/0-AL-TRXLPELCJ-15KV Phases= 1 Length=1.53   units=m enable=yes
New Line.263361375 Phases= 1 Bus1=258281762.1     Bus2=263361377.1     Length=1.52   units=m  Spacing=VERTICAL-1-PH-60-1PH wires=['2-ACSR-B-6X1' '2-ACSR-B-6X1']
New Line.261013282 Bus1=261013283.2     Bus2=261013284.2     LineCode=1/0-AL-TRXLPELCJ-15KV Phases= 1 Length=202.00 units=m enable=yes
New Line.258281426 Phases= 3 Bus1=258281423.1.2.3 Bus2=258281428.1.2.3 Length=61.15  units=m  Spacing=8'-ARM-NON-CENTER-POST-3PH wires=['2-ACSR-B-6X1' '2-ACSR-B-6X1' '2-ACSR-B-6X1' '2-ACSR-B-6X1']
New Line.258281612 Phases= 3 Bus1=258281613.1.2.3 Bus2=258281614.1.2.3 Length=51.02  units=m  Spacing=8'-ARM-NON-CENTER-POST-3PH wires=['336-AAC-B-19' '336-AAC-B-19' '336-AAC-B-19' '1/0-ACSR-B-6X1']
New Line.263362994 Phases= 3 Bus1=263362991.1.2.3 Bus2=258287443.1.2.3 Length=75.24  units=m  Spacing=8'-ARM-NON-CENTER-POST-3PH wires=['2-ACSR-B-6X1' '2-ACSR-B-6X1' '2-ACSR-B-6X1' '2-ACSR-B-6X1']
New Line.258281214 Phases= 2 Bus1=258281209.2.3   Bus2=258281216.2.3   Length=73.58  units=m  Spacing=8'-ARM-STANDARD-2PH wires=['336-ACSR-WP-18X1' '336-ACSR-WP-18X1' '1/0-ACSR-WP-6X1']
New Line.258278417 Phases= 3 Bus1=258278414.1.2.3 Bus2=258278419.1.2.3 Length=65.96  units=m  Spacing=8'-ARM-NON-CENTER-POST-3PH wires=['336-ACSR-WP-18X1' '336-ACSR-WP-18X1' '336-ACSR-WP-18X1' '1/0-ACSR-WP-6X1']
New Line.258278444 Phases= 2 Bus1=258278441.1.2   Bus2=258278446.1.2   Length=86.92  units=m  Spacing=8'-ARM-STANDARD-2PH wires=['6-CU-B-S' '6-CU-B-S' '6-CU-B-S']
New Line.263360603 Phases= 1 Bus1=263360600.2     Bus2=258278369.2     Length=81.30  units=m  Spacing=VERTICAL-1-PH-60-1PH wires=['2-ACSR-B-6X1' '2-ACSR-B-6X1']
New Line.455203729 Phases= 3 Bus1=455203694.1.2.3 Bus2=455203731.1.2.3 Length=21.26  units=m  Spacing=8'-ARM-STANDARD-3PH wires=['1/0-ACSR-B-6X1' '1/0-ACSR-B-6X1' '1/0-ACSR-B-6X1' '1/0-ACSR-B-6X1']
New Line.263361407 Phases= 1 Bus1=263361404.3     Bus2=258281830.3     Length=74.63  units=m  Spacing=VERTICAL-1-PH-60-1PH wires=['2-ACSR-B-6X1' '2-ACSR-B-6X1']
New Line.258281684 Phases= 3 Bus1=258281681.1.2.3 Bus2=258281686.1.2.3 Length=101.80 units=m  Spacing=8'-ARM-NON-CENTER-POST-3PH wires=['336-AAC-B-19' '336-AAC-B-19' '336-AAC-B-19' '1/0-ACSR-B-6X1']
New Line.258282159 Phases= 3 Bus1=258282154.1.2.3 Bus2=258282161.1.2.3 Length=30.93  units=m  Spacing=8'-ARM-NON-CENTER-POST-3PH wires=['1/0-ACSR-B-6X1' '1/0-ACSR-B-6X1' '1/0-ACSR-B-6X1' '1/0-ACSR-B-6X1']
New Line.258287528 Phases= 1 Bus1=258287525.2     Bus2=258287530.2     Length=35.90  units=m  Spacing=VERTICAL-1-PH-60-1PH wires=['2-ACSR-B-6X1' '2-ACSR-B-6X1']
New Line.263362989 Phases= 3 Bus1=258287433.1.2.3 Bus2=263362991.1.2.3 Length=1.53   units=m  Spacing=8'-ARM-NON-CENTER-POST-3PH wires=['2-ACSR-B-6X1' '2-ACSR-B-6X1' '2-ACSR-B-6X1' '2-ACSR-B-6X1']
New Line.260863631 Bus1=258281161.3     Bus2=260863633.3     LineCode=1/0-AL-TRXLPELCJ-15KV Phases= 1 Length=72.44  units=m enable=yes
New Line.455203917 Phases= 1 Bus1=455203782.1     Bus2=455203804.1     Length=1.54   units=m  Spacing=VERTICAL-1-PH-104-1PH wires=['1/0-ACSR-B-6X1' '1/0-ACSR-B-6X1']
New Line.260896140 Bus1=260859986.2     Bus2=260896137.2     LineCode=1/0-AL-TRXLPELCJ-15KV Phases= 1 Length=138.90 units=m enable=yes
New Line.428164370 Bus1=428164366.2     Bus2=260650869.2     LineCode=1/0-AL-HMWPECN-15KV Phases= 1 Length=72.42  units=m enable=yes
New Line.264399835 Phases= 3 Bus1=264399832.1.2.3 Bus2=260031912.1.2.3 Length=5.61   units=m  Spacing=8'-ARM-STANDARD-3PH wires=['1/0-ACSR-B-6X1' '1/0-ACSR-B-6X1' '1/0-ACSR-B-6X1' '1/0-ACSR-B-6X1']
New Line.258282209 Phases= 3 Bus1=258282210.1.2.3 Bus2=258282211.1.2.3 Length=56.84  units=m  Spacing=8'-ARM-NON-CENTER-POST-3PH wires=['2-ACSR-B-6X1' '2-ACSR-B-6X1' '2-ACSR-B-6X1' '2-ACSR-B-6X1']
New Line.258281276 Phases= 3 Bus1=258281273.1.2.3 Bus2=258281278.1.2.3 Length=55.96  units=m  Spacing=8'-ARM-NON-CENTER-POST-3PH wires=['336-AAC-B-19' '336-AAC-B-19' '336-AAC-B-19' '1/0-ACSR-B-6X1']
New Line.260959705 Bus1=260959702.2     Bus2=260959707.2     LineCode=1/0-AL-TRXLPELCJ-15KV Phases= 1 Length=131.20 units=m enable=yes
New Line.258282113 Phases= 1 Bus1=258282110.3     Bus2=258282115.3     Length=55.88  units=m  Spacing=VERTICAL-1-PH-60-1PH wires=['2-ACSR-B-6X1' '2-ACSR-B-6X1']
New Line.258278434 Phases= 3 Bus1=258278431.1.2.3 Bus2=258278436.1.2.3 Length=47.13  units=m  Spacing=8'-ARM-NON-CENTER-POST-3PH wires=['336-ACSR-WP-18X1' '336-ACSR-WP-18X1' '336-ACSR-WP-18X1' '1/0-ACSR-WP-6X1']
New Line.624971033 Phases= 1 Bus1=258282095.3     Bus2=258282050.3     Length=108.00 units=m  Spacing=VERTICAL-1-PH-60-1PH wires=['2-ACSR-B-6X1' '2-ACSR-B-6X1']
New Line.704826196 Phases= 3 Bus1=385900508.1.2.3 Bus2=704826198.1.2.3 Length=1.53   units=m  Spacing=8'-ARM-STANDARD-3PH wires=['1/0-ACSR-B-6X1' '1/0-ACSR-B-6X1' '1/0-ACSR-B-6X1' '1/0-ACSR-B-6X1']
New Line.455203748 Phases= 3 Bus1=455203731.1.2.3 Bus2=455203750.1.2.3 Length=91.14  units=m  Spacing=8'-ARM-STANDARD-3PH wires=['1/0-ACSR-B-6X1' '1/0-ACSR-B-6X1' '1/0-ACSR-B-6X1' '1/0-ACSR-B-6X1']
New Line.263361425 Phases= 1 Bus1=263361422.3     Bus2=258282075.3     Length=28.87  units=m  Spacing=VERTICAL-1-PH-60-1PH wires=['2-ACSR-B-6X1' '2-ACSR-B-6X1']
New Line.258281728 Phases= 3 Bus1=258281729.1.2.3 Bus2=258281730.1.2.3 Length=51.23  units=m  Spacing=8'-ARM-NON-CENTER-POST-3PH wires=['1/0-ACSR-B-6X1' '1/0-ACSR-B-6X1' '1/0-ACSR-B-6X1' '1/0-ACSR-B-6X1']
New Line.258281458 Phases= 1 Bus1=258281455.2     Bus2=258281460.2     Length=128.80 units=m  Spacing=VERTICAL-1-PH-60-1PH wires=['2-ACSR-B-6X1' '2-ACSR-B-6X1']
New Line.258281326 Phases= 1 Bus1=258281323.2     Bus2=258281328.2     Length=40.03  units=m  Spacing=VERTICAL-1-PH-60-1PH wires=['4-ACSR-B-6X1' '4-ACSR-B-6X1']
New Line.258287613 Phases= 1 Bus1=258287610.2     Bus2=258287615.2     Length=28.70  units=m  Spacing=VERTICAL-1-PH-60-1PH wires=['2-ACSR-B-6X1' '2-ACSR-B-6X1']
New Line.261315874 Bus1=261315875.1     Bus2=261315870.1     LineCode=1/0-AL-TRXLPELCJ-15KV Phases= 1 Length=209.20 units=m enable=yes
New Line.263828702 Phases= 1 Bus1=258281619.1     Bus2=263828704.1     Length=1.52   units=m  Spacing=VERTICAL-1-PH-60-1PH wires=['2-ACSR-B-6X1' '2-ACSR-B-6X1']
New Line.261297315 Bus1=261297316.3     Bus2=261297311.3     LineCode=1/0-AL-TRXLPELCJ-15KV Phases= 1 Length=102.40 units=m enable=yes
New Line.258278504 Phases= 1 Bus1=258278501.2     Bus2=258278506.2     Length=57.27  units=m  Spacing=VERTICAL-1-PH-60-1PH wires=['2-ACSR-B-6X1' '2-ACSR-B-6X1']
New Line.264528617 Phases= 3 Bus1=258284414.1.2.3 Bus2=264528619.1.2.3 Length=1.52   units=m  Spacing=8'-ARM-NON-CENTER-POST-3PH wires=['336-AAC-B-19' '336-AAC-B-19' '336-AAC-B-19' '1/0-ACSR-B-6X1']
New Line.455203754 Phases= 3 Bus1=455203750.1.2.3 Bus2=455203756.1.2.3 Length=104.60 units=m  Spacing=8'-ARM-STANDARD-3PH wires=['1/0-ACSR-B-6X1' '1/0-ACSR-B-6X1' '1/0-ACSR-B-6X1' '1/0-ACSR-B-6X1']
New Line.261187902 Bus1=261187903.2     Bus2=261187904.2     LineCode=1/0-AL-TRXLPELCJ-15KV Phases= 1 Length=172.30 units=m enable=yes
New Line.258282234 Phases= 3 Bus1=258282235.1.2.3 Bus2=258282236.1.2.3 Length=33.64  units=m  Spacing=8'-ARM-NON-CENTER-POST-3PH wires=['2-ACSR-B-6X1' '2-ACSR-B-6X1' '2-ACSR-B-6X1' '2-ACSR-B-6X1']
New Line.258282184 Phases= 3 Bus1=258282176.1.2.3 Bus2=258282186.1.2.3 Length=71.96  units=m  Spacing=8'-ARM-NON-CENTER-POST-3PH wires=['1/0-ACSR-B-6X1' '1/0-ACSR-B-6X1' '1/0-ACSR-B-6X1' '2-ACSR-B-6X1']
New Line.258281175 Phases= 3 Bus1=258281137.1.2.3 Bus2=258281177.1.2.3 Length=48.84  units=m  Spacing=8'-ARM-NON-CENTER-POST-3PH wires=['336-AAC-B-19' '336-AAC-B-19' '336-AAC-B-19' '1/0-ACSR-B-6X1']
New Line.264010567 Bus1=264010564.3     Bus2=261297326.3     LineCode=1/0-AL-TRXLPELCJ-15KV Phases= 1 Length=253.20 units=m enable=yes
New Line.258281111 Phases= 3 Bus1=258281108.1.2.3 Bus2=258281113.1.2.3 Length=32.42  units=m  Spacing=8'-ARM-NON-CENTER-POST-3PH wires=['336-ACSR-WP-18X1' '336-ACSR-WP-18X1' '336-ACSR-WP-18X1' '1/0-ACSR-WP-6X1']
New Line.263362440 Bus1=258285769.1.2.3 Bus2=263362442.1.2.3 LineCode=1/0-AL-HMWPECN-15KV Phases= 3 Length=1.53   units=m enable=yes
New Line.258281813 Phases= 3 Bus1=258281808.1.2.3 Bus2=258281815.1.2.3 Length=75.97  units=m  Spacing=8'-ARM-NON-CENTER-POST-3PH wires=['2-ACSR-B-6X1' '2-ACSR-B-6X1' '2-ACSR-B-6X1' '2-ACSR-B-6X1']
New Line.264485801 Phases= 3 Bus1=264485798.1.2.3 Bus2=258285754.1.2.3 Length=50.10  units=m  Spacing=8'-ARM-NON-CENTER-POST-3PH wires=['1/0-ACSR-B-6X1' '1/0-ACSR-B-6X1' '1/0-ACSR-B-6X1' '1/0-ACSR-B-6X1']
New Line.298664899 Phases= 1 Bus1=298664897.3     Bus2=258281855.3     Length=83.66  units=m  Spacing=VERTICAL-1-PH-60-1PH wires=['2-ACSR-B-6X1' '2-ACSR-B-6X1']
New Line.263361393 Phases= 1 Bus1=258281820.3     Bus2=263361395.3     Length=1.53   units=m  Spacing=VERTICAL-1-PH-60-1PH wires=['2-ACSR-B-6X1' '2-ACSR-B-6X1']
New Line.258282239 Phases= 3 Bus1=258282226.1.2.3 Bus2=258282241.1.2.3 Length=41.26  units=m  Spacing=8'-ARM-NON-CENTER-POST-3PH wires=['1/0-ACSR-B-6X1' '1/0-ACSR-B-6X1' '1/0-ACSR-B-6X1' '1/0-ACSR-B-6X1']
New Line.258281508 Phases= 1 Bus1=258281505.2     Bus2=258281510.2     Length=54.36  units=m  Spacing=VERTICAL-1-PH-60-1PH wires=['2-ACSR-B-6X1' '2-ACSR-B-6X1']
New Line.258281411 Phases= 3 Bus1=258281403.1.2.3 Bus2=258281413.1.2.3 Length=25.95  units=m  Spacing=8'-ARM-NON-CENTER-POST-3PH wires=['2-ACSR-B-6X1' '4-ACSR-B-6X1' '2-ACSR-B-6X1' '4-ACSR-B-6X1']
New Line.455203882 Phases= 1 Bus1=455203868.1     Bus2=455203867.1     Length=79.24  units=m  Spacing=VERTICAL-1-PH-104-1PH wires=['1/0-ACSR-B-6X1' '1/0-ACSR-B-6X1']
New Line.263828725 Phases= 3 Bus1=263828722.1.2.3 Bus2=258282130.1.2.3 Length=44.05  units=m  Spacing=8'-ARM-NON-CENTER-POST-3PH wires=['2-ACSR-B-6X1' '2-ACSR-B-6X1' '2-ACSR-B-6X1' '2-ACSR-B-6X1']
New Line.258278397 Phases= 3 Bus1=258278398.1.2.3 Bus2=258278399.1.2.3 Length=82.71  units=m  Spacing=8'-ARM-NON-CENTER-POST-3PH wires=['336-ACSR-WP-18X1' '336-ACSR-WP-18X1' '336-ACSR-WP-18X1' '1/0-ACSR-WP-6X1']
New Line.258278342 Phases= 3 Bus1=258278334.1.2.3 Bus2=258278344.1.2.3 Length=49.68  units=m  Spacing=8'-ARM-NON-CENTER-POST-3PH wires=['336-ACSR-WP-18X1' '336-ACSR-WP-18X1' '336-ACSR-WP-18X1' '2-ACSR-B-6X1']
New Line.621098682 Phases= 3 Bus1=699730248.1.2.3 Bus2=699730351.1.2.3 Length=1.53   units=m  Spacing=8'-ARM-STANDARD-3PH wires=['1/0-ACSR-B-6X1' '1/0-ACSR-B-6X1' '1/0-ACSR-B-6X1' '1/0-ACSR-B-6X1']
New Line.258281463 Phases= 1 Bus1=258281460.2     Bus2=258281465.2     Length=56.75  units=m  Spacing=VERTICAL-1-PH-60-1PH wires=['2-ACSR-B-6X1' '2-ACSR-B-6X1']
New Line.258287678 Phases= 1 Bus1=258287675.2     Bus2=258287680.2     Length=129.20 units=m  Spacing=VERTICAL-1-PH-60-1PH wires=['6-CU-B-S' '6-CU-B-S']
New Line.258287608 Phases= 1 Bus1=258287605.2     Bus2=258287610.2     Length=35.02  units=m  Spacing=VERTICAL-1-PH-60-1PH wires=['2-ACSR-B-6X1' '2-ACSR-B-6X1']
New Line.258281416 Phases= 3 Bus1=258281413.1.2.3 Bus2=258281423.1.2.3 Length=48.97  units=m  Spacing=8'-ARM-NON-CENTER-POST-3PH wires=['2-ACSR-B-6X1' '4-ACSR-B-6X1' '2-ACSR-B-6X1' '4-ACSR-B-6X1']
New Line.738976582 Phases= 3 Bus1=738976579.1.2.3 Bus2=259350248.1.2.3 Length=15.63  units=m  Spacing=8'-ARM-STANDARD-3PH wires=['1/0-ACSR-B-6X1' '1/0-ACSR-B-6X1' '1/0-ACSR-B-6X1' '1/0-ACSR-B-6X1']
...
